Circuit: * Z:\home\prodan\_work\ti\msp430f5510\gprs_i2c_gateway\hardware\ltspice\pwr_ctrl.asc

Direct Newton iteration for .op point succeeded.

Date: Sun Nov 01 15:19:21 2015
Total elapsed time: 0.862 seconds.

tnom = 27
temp = 27
method = modified trap
totiter = 3285
traniter = 3267
tranpoints = 1434
accept = 1330
rejected = 104
matrix size = 17
fillins = 10
solver = Normal
Matrix Compiler1: 1.94 KB object code size  4.1/3.7/[2.6]
Matrix Compiler2: off  [2.7]/3.1/3.1


